456
UiO-66-NH2
Zr     35.280290   37.105606   19.538364
O      34.488905   38.283070   21.243155
O      33.096404   38.822956   17.231684
O      33.137315   37.496180   19.068244
O      35.600552   40.264193   21.262221
O      37.040044   38.125278   20.541111
C      34.729644   39.447894   21.714241
C      32.509151   38.186601   18.173615
H      37.039825   38.124725   21.510072
Zr     35.254297   39.165408   16.663702
O      37.028561   40.434468   17.305171
H      37.029501   41.349859   16.986729
O      35.043304   36.999866   17.286105
H      34.252195   36.545215   16.960544
Zr     38.797061   39.153593   16.672752
Zr     37.034709   36.135384   16.673597
Zr     37.033906   40.164223   19.553689
Zr     38.811822   37.107389   19.543915
O      34.586115   35.028036   19.030595
O      35.906218   40.384560   14.884097
O      35.892095   35.815724   21.264151
O      34.553625   38.018801   14.878788
O      34.465186   41.148089   17.247250
O      35.566637   38.975602   18.704431
O      37.040780   36.435531   18.707327
O      37.028349   38.156129   16.305199
O      35.613739   41.828061   19.085378
C      34.723243   41.982065   18.183268
O      38.457592   40.259451   21.275132
O      38.466857   41.812871   19.090929
O      38.504426   38.975914   18.707930
Zr     42.722680   24.343473   19.538364
O      41.931295   25.520938   21.243155
O      40.538794   26.060823   17.231684
O      40.579705   24.734048   19.068244
O      43.042943   27.502061   21.262221
O      44.482434   25.363146   20.541111
C      42.172035   26.685762   21.714241
C      39.951542   25.424468   18.173615
H      44.482216   25.362592   21.510072
Zr     42.696688   26.403276   16.663702
O      44.470952   27.672336   17.305171
H      44.471891   28.587727   16.986729
O      42.485694   24.237734   17.286105
H      41.694586   23.783083   16.960544
Zr     46.239451   26.391461   16.672752
Zr     44.477099   23.373252   16.673597
Zr     44.476297   27.402091   19.553689
Zr     46.254212   24.345257   19.543915
O      42.028505   22.265903   19.030595
O      43.348608   27.622427   14.884097
O      43.334485   23.053591   21.264151
O      41.996015   25.256669   14.878788
O      41.907577   28.385957   17.247250
O      43.009028   26.213470   18.704431
O      44.483170   23.673399   18.707327
O      44.470739   25.393996   16.305199
Zr     50.148272   28.498970   31.605116
O      49.356888   29.676435   33.309907
O      47.964387   30.216321   29.298436
O      48.005297   28.889545   31.134996
O      50.468535   31.657558   33.328973
O      51.908027   29.518643   32.607864
C      49.597627   30.841259   33.780993
C      47.377134   29.579966   30.240367
H      51.907808   29.518090   33.576824
Zr     50.122280   30.558773   28.730454
O      51.896544   31.827833   29.371923
H      51.897483   32.743224   29.053481
O      49.911286   28.393231   29.352857
H      49.120178   27.938580   29.027296
Zr     53.665043   30.546958   28.739504
Zr     51.902691   27.528749   28.740349
Zr     51.901889   31.557588   31.620441
Zr     53.679804   28.500754   31.610667
O      49.454097   26.421401   31.097348
O      50.774200   31.777924   26.950850
O      50.760077   27.209088   33.330903
O      49.421608   29.412166   26.945540
O      49.333169   32.541454   29.314002
O      50.434620   30.368967   30.771183
O      51.908762   27.828896   30.774079
O      51.896332   29.549494   28.371951
Zr     42.688998   32.950108    7.471612
O      41.897613   34.127573    9.176403
O      39.486401   38.005217   14.859723
O      35.741054   36.087496   14.864670
O      40.505112   34.667459    5.164932
O      40.546022   33.340683    7.001492
O      35.684554   34.438457   17.135874
O      38.392897   36.019736   14.921022
O      43.009260   36.108696    9.195468
O      44.448752   33.969781    8.474359
O      39.027077   36.993429   17.292983
C      41.420723   37.035873   11.324888
C      39.840128   35.077290   12.655730
C      40.700176   37.363315   12.459525
C      40.572104   34.765344   11.493823
C      34.854967   34.198046   18.096146
C      41.352658   35.713636   10.845114
C      42.138352   35.292397    9.647489
C      39.912033   36.416449   13.147209
C      39.221155   36.850240   14.380914
C      34.871473   36.893562   14.358108
C      39.917859   34.031103    6.106863
H      39.814643   36.533599   16.966095
H      44.448533   33.969227    9.443320
H      40.537360   33.751561   11.092965
H      42.035069   37.766735   10.801915
H      40.729372   38.373605   12.866174
H      39.387763   33.129626   13.040298
H      38.767634   34.258726   14.187363
N      39.092074   34.078467   13.241088
Zr     42.663005   35.009911    4.596950
O      44.437269   36.278971    5.238418
H      44.438209   37.194362    4.919977
O      42.452012   32.844369    5.219353
H      41.660903   32.389718    4.893792
Zr     46.205769   34.998096    4.606000
Zr     44.443416   31.979887    4.606845
Zr     44.442614   36.008726    7.486937
Zr     46.220529   32.951892    7.477163
O      41.994822   30.872539    6.963843
O      38.337761   34.404895   17.208516
O      43.314926   36.229062    2.817345
O      43.300803   31.660226    9.197399
O      41.962333   33.863304    2.812036
O      41.873894   36.992592    5.180498
O      42.975345   34.820105    6.637679
O      44.449488   32.280034    6.640575
O      44.437057   34.000631    4.238447
Zr     50.114590   37.105606   19.538364
O      49.323205   38.283070   21.243155
O      43.056129   29.065928   19.085378
O      47.930704   38.822956   17.231684
O      40.949703   37.527770   19.044352
O      38.162758   35.816700   21.248826
O      47.971615   37.496180   19.068244
O      40.955906   38.832808   17.186916
O      39.603660   38.298385   21.237966
O      39.522415   35.046618   19.031561
O      50.434852   40.264193   21.262221
O      51.874344   38.125278   20.541111
C      40.970671   32.699618   19.042180
C      40.326164   30.637270   17.300827
C      45.117030   37.515560   19.242367
C      43.770273   38.943539   17.187158
C      45.154509   38.917052   17.237355
C      43.707239   37.545306   19.168277
C      41.700321   31.525103   19.096239
C      39.561629   31.820760   17.241699
C      49.563944   39.447894   21.714241
C      39.911653   32.885411   18.128244
C      39.211716   34.190862   18.131984
C      39.351912   39.460196   21.713276
C      41.375002   30.488097   18.199920
C      42.165633   29.219933   18.183268
C      45.860282   38.210892   18.236000
C      47.343451   38.186601   18.173615
C      43.040059   38.236613   18.165047
C      41.541594   38.202887   18.132708
C      37.030412   35.458241   21.724377
H      51.874125   38.124725   21.510072
H      40.096772   29.815064   16.621710
H      42.518784   31.389259   19.800937
H      41.198402   33.529142   19.710678
H      43.120780   37.010540   19.917140
H      43.235502   39.484507   16.408128
H      45.746628   39.438313   16.485597
H      45.133083   36.181341   20.792341
H      46.707847   36.709544   20.227135
H      38.161102   31.006877   16.007150
H      37.874903   32.649137   16.446380
N      38.542652   31.893427   16.318714
N      45.701519   36.845095   20.282400
Zr     50.088597   39.165408   16.663702
O      51.862861   40.434468   17.305171
H      51.863801   41.349859   16.986729
O      49.877604   36.999866   17.286105
H      49.086495   36.545215   16.960544
Zr     53.631361   39.153593   16.672752
Zr     51.869009   36.135384   16.673597
Zr     51.868206   40.164223   19.553689
Zr     53.646122   37.107389   19.543915
O      49.420415   35.028036   19.030595
O      45.899982   27.497318   21.275132
O      50.740518   40.384560   14.884097
O      50.726395   35.815724   21.264151
O      49.387925   38.018801   14.878788
O      49.299486   41.148089   17.247250
O      45.909248   29.050739   19.090929
O      50.400937   38.975602   18.704431
O      51.875080   36.435531   18.707327
O      51.862649   38.156129   16.305199
O      45.946817   26.213782   18.707930
O      50.481721   33.221426   31.152131
C      49.591226   33.375430   30.250020
O      53.325574   31.652816   33.341884
O      53.334840   33.206236   31.157681
O      53.372409   30.369279   30.774683
O      39.581884   41.146252   17.227461
O      43.022446   37.672564    7.018626
O      38.171814   40.342923   14.898457
C      39.337451   41.974586   18.171925
C      42.131951   37.826568    6.116516
C      37.041281   40.704814   14.388033
O      45.866300   36.103954    9.208380
O      45.875565   37.657374    7.024177
O      45.913134   34.820417    6.641178
O      50.448039   41.828061   19.085378
C      49.557543   41.982065   18.183268
O      53.291892   40.259451   21.275132
O      53.301157   41.812871   19.090929
O      53.338726   38.975914   18.707930
O      46.928792   25.243084   14.859723
O      43.183444   23.325363   14.864670
O      43.126944   21.676325   17.135874
O      45.835287   23.257604   14.921022
O      46.469468   24.231297   17.292983
C      42.297357   21.435914   18.096146
C      46.663546   24.088108   14.380914
C      42.313863   24.131430   14.358108
H      47.257034   23.771467   16.966095
O      45.780151   21.642762   17.208516
Zr     57.556980   24.343473   19.538364
O      56.765595   25.520938   21.243155
O      54.354384   29.398581   26.926475
O      50.609037   27.480860   26.931422
O      55.373094   26.060823   17.231684
O      48.392094   24.765638   19.044352
O      45.605148   23.054567   21.248826
O      55.414005   24.734048   19.068244
O      48.398296   26.070676   17.186916
O      47.046050   25.536252   21.237966
O      46.964805   22.284486   19.031561
O      50.552536   25.831822   29.202626
O      53.260879   27.413101   26.987774
O      57.877243   27.502061   21.262221
O      59.316734   25.363146   20.541111
O      53.895060   28.386794   29.359735
C      56.288706   28.429238   23.391640
C      54.708111   26.470655   24.722482
C      47.982070   28.653271   24.718138
C      48.661646   26.354716   23.318154
C      52.559420   24.753428   19.242367
C      51.212663   26.181406   17.187158
C      52.596899   26.154919   17.237355
C      51.149630   24.783173   19.168277
C      49.426070   26.691717   24.454239
C      47.254373   28.316074   23.590380
C      55.568158   28.756679   24.526277
C      55.440086   26.158709   23.560575
C      49.722949   25.591411   30.162898
C      56.220640   27.107001   22.911866
C      57.006335   26.685762   21.714241
C      54.780016   27.809813   25.213961
C      54.089138   28.243605   26.447666
C      49.053681   27.862642   25.183553
C      49.739456   28.286927   26.424860
C      46.654106   21.428729   18.131984
C      47.594411   27.138609   22.896179
C      46.794303   26.698064   21.713276
C      53.302672   25.448760   18.236000
C      54.785842   25.424468   18.173615
C      50.482449   25.474481   18.165047
C      48.983984   25.440755   18.132708
C      44.472803   22.696109   21.724377
H      54.682626   27.926964   29.032847
H      59.316516   25.362592   21.510072
H      55.405342   25.144926   23.159717
H      56.903052   29.160100   22.868667
H      55.597355   29.766970   24.932927
H      48.903046   25.451536   22.755964
H      46.424556   28.926968   23.239720
H      47.740255   29.548202   25.290102
H      50.563170   24.248407   19.917140
H      50.677892   26.722374   16.408128
H      53.189018   26.676181   16.485597
H      54.255746   24.522991   25.107050
H      53.635616   25.652091   26.254115
H      52.575473   23.419208   20.792341
H      54.150237   23.947412   20.227135
H      50.865276   25.304244   24.065568
H      51.124052   26.229716   25.492221
N      53.960056   25.471832   25.307841
N      50.464607   25.860486   24.812500
N      53.143909   24.082962   20.282400
Zr     57.530988   26.403276   16.663702
O      59.305252   27.672336   17.305171
H      59.306191   28.587727   16.986729
O      57.319994   24.237734   17.286105
H      56.528886   23.783083   16.960544
Zr     61.073751   26.391461   16.672752
Zr     59.311399   23.373252   16.673597
Zr     59.310597   27.402091   19.553689
Zr     61.088512   24.345257   19.543915
O      56.862805   22.265903   19.030595
O      53.205743   25.798260   29.275268
O      58.182908   27.622427   14.884097
O      58.168785   23.053591   21.264151
O      56.830315   25.256669   14.878788
O      56.741877   28.385957   17.247250
O      57.843328   26.213470   18.704431
O      59.317470   23.673399   18.707327
O      59.305039   25.393996   16.305199
O      55.817686   28.921135   31.111104
O      53.030741   27.210064   33.315579
O      55.823888   30.226173   29.253668
O      54.471643   29.691750   33.304719
O      54.390398   26.439983   31.098313
C      54.079699   25.584227   30.198737
C      54.219895   30.853561   33.780028
C      56.409576   29.596252   30.199461
C      51.898395   26.851606   33.791129
O      46.895109   33.849719    2.792970
O      43.149762   31.931998    2.797918
O      43.093262   30.282960    5.069122
O      45.801605   31.864239    2.854270
O      46.435785   32.837932    5.226231
C      42.263675   30.042549    6.029394
C      46.629863   32.694743    2.314162
C      42.280181   32.738065    2.291356
H      47.223351   32.378102    4.899343
O      45.746469   30.249398    5.141764
O      47.024274   28.384119   17.227461
O      54.320701   38.005217   14.859723
O      50.575354   36.087496   14.864670
O      48.358411   33.372273    6.977599
O      45.571466   31.661202    9.182074
O      48.364614   34.677311    5.120164
O      45.614205   27.580790   14.898457
O      47.012368   34.142888    9.171214
O      46.931123   30.891121    6.964809
O      50.518854   34.438457   17.135874
O      53.227197   36.019736   14.921022
O      53.861377   36.993429   17.292983
C      49.084734   31.981065   16.990108
C      47.484077   31.374200   19.264328
C      47.948388   37.259906   12.651386
C      48.627964   34.961351   11.251402
C      45.741872   29.189599   12.542303
C      43.241639   30.013758   11.476809
C      45.665837   30.003014   11.391135
C      43.296549   29.216752   12.608549
C      49.392387   35.298352   12.387486
C      47.220691   36.922709   11.523628
C      48.203274   32.554636   19.204115
C      48.350696   30.781944   17.072403
C      49.000566   32.889901   18.089027
C      49.689267   34.198046   18.096146
C      47.561696   30.483826   18.176028
C      46.779841   29.212453   18.171925
C      54.055455   36.850240   14.380914
C      49.019999   36.469277   13.116801
C      49.705773   36.893562   14.358108
C      46.620424   30.035364    6.065232
C      47.560728   35.745244   10.829427
C      46.760620   35.304699    9.646524
C      44.519698   28.790885   13.170377
C      44.483671   27.942681   14.388033
C      48.950302   34.047390    6.065956
C      44.447810   30.414633   10.865386
C      44.439120   31.302744    9.657625
H      54.648943   36.533599   16.966095
H      48.390273   30.070779   16.246192
H      46.865840   31.120617   20.123723
H      48.170355   33.270784   20.024413
H      48.869364   34.058172   10.689212
H      46.390874   37.533604   11.172968
H      47.706573   38.154837   13.223350
H      46.586103   30.327540   10.903397
H      42.293242   30.335873   11.049887
H      42.381934   28.889202   13.101959
H      50.831594   33.910879   11.998816
H      51.090369   34.836351   13.425468
H      49.565014   31.691783   15.032398
H      50.174181   33.151861   15.724547
H      47.005339   28.142095   13.749340
H      47.763771   28.936170   12.382660
N      49.847380   32.199354   15.863314
N      50.430924   34.467121   12.745748
N      46.980680   28.848622   13.018216
O      53.172061   34.404895   17.208516
O      54.449866   32.539616   29.294213
O      57.890429   29.065928   19.085378
O      55.784003   37.527770   19.044352
O      52.997058   35.816700   21.248826
O      55.790206   38.832808   17.186916
O      53.039797   31.736288   26.965209
O      54.437960   38.298385   21.237966
O      54.356715   35.046618   19.031561
C      55.804971   32.699618   19.042180
C      55.160464   30.637270   17.300827
C      53.167464   33.345096   24.609055
C      50.667231   34.169256   23.543561
C      53.091429   34.158512   23.457887
C      50.722141   33.372249   24.675301
C      56.534621   31.525103   19.096239
C      54.395929   31.820760   17.241699
C      54.205434   33.367951   30.238677
C      54.745953   32.885411   18.128244
C      54.046016   34.190862   18.131984
C      54.186212   39.460196   21.713276
C      56.209302   30.488097   18.199920
C      56.999933   29.219933   18.183268
C      51.945290   32.946383   25.237129
C      51.909264   32.098179   26.454785
C      56.375894   38.202887   18.132708
C      51.873402   34.570130   22.932138
C      51.864712   35.458241   21.724377
H      54.931072   29.815064   16.621710
H      57.353084   31.389259   19.800937
H      56.032702   33.529142   19.710678
H      54.011695   34.483037   22.970149
H      49.718834   34.491370   23.116639
H      49.807527   33.044699   25.168711
H      54.430931   32.297592   25.816092
H      55.189363   33.091668   24.449412
H      52.995402   31.006877   16.007150
H      52.709203   32.649137   16.446380
N      53.376952   31.893427   16.318714
N      54.406273   33.004119   25.084968
O      60.734282   27.497318   21.275132
O      60.743548   29.050739   19.090929
O      60.781117   26.213782   18.707930
O      46.990592   36.990754    5.160709
O      45.580522   36.187425    2.831705
C      46.746159   37.819088    6.105173
C      44.449989   36.549317    2.321281
O      54.416184   41.146252   17.227461
O      53.006114   40.342923   14.898457
C      54.171751   41.974586   18.171925
C      51.875581   40.704814   14.388033
O      61.763092   25.243084   14.859723
O      58.017744   23.325363   14.864670
O      57.961244   21.676325   17.135874
O      60.669587   23.257604   14.921022
O      61.303768   24.231297   17.292983
C      57.131657   21.435914   18.096146
C      61.497846   24.088108   14.380914
C      57.148163   24.131430   14.358108
H      62.091334   23.771467   16.966095
O      60.614451   21.642762   17.208516
O      63.226394   24.765638   19.044352
O      60.439448   23.054567   21.248826
O      63.232596   26.070676   17.186916
O      61.880350   25.536252   21.237966
O      61.799105   22.284486   19.031561
C      61.488406   21.428729   18.131984
C      61.628603   26.698064   21.713276
C      63.818284   25.440755   18.132708
C      59.307103   22.696109   21.724377
O      61.858574   28.384119   17.227461
O      60.448505   27.580790   14.898457
C      61.614141   29.212453   18.171925
C      59.317971   27.942681   14.388033
